LAMMPS (27 Jun 2024 - Development - patch_27Jun2024-612-gaa0b6c47c2-modified)
# LAMMPS input script for calculating thermal conductivity of a LJ liquid using Green-Kubo

units lj
dimension 3
boundary p p p

# Create simulation box
lattice fcc 0.6
Lattice spacing in x,y,z = 1.8820721 1.8820721 1.8820721
region box block 0 10 0 10 0 10
create_box 1 box
Created orthogonal box = (0 0 0) to (18.820721 18.820721 18.820721)
create_atoms 1 box
Created 4000 atoms

# Define interatomic potential
pair_style lj/cut 2.5
pair_coeff 1 1 1.0 1.0 2.5

# Set simulation parameters
mass 1 1.0
velocity all create 1.35 12345

# Thermostat for equilibration
fix 1 all nvt temp 1.35 1.35 0.5
timestep 0.005

# Equilibration run
thermo 100
run 20000
Generated 0 of 0 mixed pair_coeff terms from geometric mixing rule
Step          Temp          E_pair         E_mol          TotEng         Press
0   1.35          -4.1241917      0             -2.0996979     -3.1962625
Averages over the last 101 of 201 rows, steps 10000 to 20000:
Temp E_pair E_mol TotEng Press
1.35078 -3.7092 0 -1.68354 0.842603
Loop time of 29.8915 on 1 procs for 20000 steps with 4000 atoms
