LAMMPS (27 Jun 2024 - Development - patch_27Jun2024-612-gaa0b6c47c2-modified)
# LAMMPS input script for simulating the melting behavior of Ca-O system

units           metal
dimension       3
boundary        p p p
atom_style      charge

# Create lattice and define simulation box
lattice         fcc 4.8
Lattice spacing in x,y,z = 4.8 4.8 4.8
region          box block 0 10 0 10 0 10
create_box      2 box
Created orthogonal box = (0 0 0) to (48 48 48)
create_atoms    1 box
Created 4000 atoms

# Shift oxygen atoms to represent ionic structure
displace_atoms  all move 0.5 0.5 0.5
Displacing atoms ...

# Set masses
mass            1 40.08   # mass of Calcium
mass            2 16.00   # mass of Oxygen

# Assign charges
set             type 1 charge 1.2   # Ca2+
Setting atom values ...
  4000 settings made for charge
set             type 2 charge -1.2  # O2-
Setting atom values ...
  0 settings made for charge

# Define pair style and interactions
pair_style      hybrid/overlay coul/long 12.0 pedone 12.0
pair_coeff      * * coul/long
pair_coeff      1 2 pedone 0.0 0.0 0.0 0.0 0.0

# KSpace style for long-range interactions
kspace_style    pppm 1.0e-4

# Initial velocity
velocity        all create 6000.0 12345 mom yes rot yes dist gaussian

# Define fixes
fix             1 all nvt temp 3000.0 3000.0 0.1

# Output settings
thermo          100
thermo_style    custom step temp pe ke etotal press

# Run the simulation
timestep        0.002
run             1000
PPPM initialization ...
  G vector (1/distance) = 0.23018365
  grid = 24 24 24
  stencil order = 5
  estimated absolute RMS force accuracy = 0.0015640168
  estimated relative force accuracy = 0.00010861496
  3d grid and FFT values/proc = 27000 13824
Generated 0 of 1 mixed pair_coeff terms from geometric mixing rule
Step          Temp          PotEng         KinEng         TotEng         Press
0   6000          -39633.355      3101.4679     -36531.887      1125215.7
Averages over the last 6 of 11 rows, steps 500 to 1000:
Temp PotEng KinEng TotEng Press
3006.02 -37960.9 1553.85 -36407 1.11876e+06
Loop time of 11.4183 on 1 procs for 1000 steps with 4000 atoms
