LAMMPS (27 Jun 2024 - Development - patch_27Jun2024-612-gaa0b6c47c2-modified)
# LAMMPS input script for a binary Lennard-Jones fluid in a cubic box

units lj
atom_style atomic

# Create a cubic box with side length 10.08
variable side equal 10.08
region box block 0 10.08 0 10.08 0 10.08
create_box 2 box
Created orthogonal box = (0 0 0) to (10.08 10.08 10.08)

# Define number of atoms and density
variable natoms equal 512
variable natomstype equal 512/2
variable density equal 0.5

# Create atoms
create_atoms 1 random 256 12345 box
Created 256 atoms
create_atoms 2 random 256 67890 box
Created 256 atoms

# Assign masses
mass 1 1.0
mass 2 1.0

# Define Lennard-Jones potential
pair_style lj/cut 2.5
pair_coeff 1 1 1.0 1.0 2.5
pair_coeff 2 2 1.0 1.0 2.5
pair_coeff 1 2 1.0 1.0 2.5

# Apply tail corrections
pair_modify tail yes

# Set initial velocities
velocity all create 1.0 12345 mom yes dist gaussian

# Energy minimization
minimize 1.0e-4 1.0e-6 100 1000
Generated 0 of 1 mixed pair_coeff terms from geometric mixing rule
Step          Temp          E_pair         E_mol          TotEng         Press
0   1              1.493358e+09   0              1.493358e+09   2.9861612e+09
Loop time of 0.0465303 on 1 procs for 100 steps with 512 atoms

Minimization stats:
  Stopping criterion = max iterations
  Energy initial, next-to-last, final =
  Force two-norm initial, final = 6.9174852e+13 38.411178
  Force max component initial, final = 3.2278958e+13 4.3492512
  Final line search alpha, max atom move = 0.0084158606 0.036602692
  Iterations, force evaluations = 100 192

# Define time step
timestep 0.005

# Microcanonical ensemble (NVE)
fix 1 all nve
thermo 100
thermo_style custom step temp pe ke etotal press density
dump 1 all xyz 100 dump_nve.xyz
run 1000
Generated 0 of 1 mixed pair_coeff terms from geometric mixing rule
Step          Temp          PotEng         KinEng         TotEng         Press         Density
100   1             -5.5758331      1.4970703     -4.0787628     -0.49053295     0.49990602
Averages over the last 6 of 11 rows, steps 600 to 1100:
Temp PotEng KinEng TotEng Press Density
0.538664 -4.90496 0.806417 -4.09854 -0.469346 0.499906
Loop time of 0.131738 on 1 procs for 1000 steps with 512 atoms

unfix 1

# Canonical ensemble (NVT)
fix 2 all nvt temp 1.0 1.0 0.1
thermo 100
dump 2 all xyz 100 dump_nvt.xyz
run 1000
Generated 0 of 1 mixed pair_coeff terms from geometric mixing rule
Step          Temp          PotEng         KinEng         TotEng         Press         Density
1100   0.5853697     -4.9821496      0.87633959    -4.10581       -0.55762405     0.49990602
Averages over the last 6 of 11 rows, steps 1600 to 2100:
Temp PotEng KinEng TotEng Press Density
1.00827 -3.65312 1.50945 -2.14367 -0.217943 0.499906
Loop time of 0.15083 on 1 procs for 1000 steps with 512 atoms

unfix 2

# End of script
