LAMMPS (27 Jun 2024 - Development - patch_27Jun2024-612-gaa0b6c47c2-modified)
# LAMMPS input script for simulating elastic properties of an FCC Argon lattice

units real
atom_style atomic
boundary p p p

# Create FCC lattice
lattice fcc 5.405
Lattice spacing in x,y,z = 5.405 5.405 5.405
region box block 0 10 0 10 0 10
create_box 1 box
Created orthogonal box = (0 0 0) to (54.05 54.05 54.05)
create_atoms 1 box
Created 4000 atoms

# Define Lennard-Jones potential for Argon
pair_style lj/cut 10.0
pair_coeff 1 1 0.238 3.405  # epsilon in kcal/mol, sigma in Angstroms

# Define masses
mass 1 39.948

# Set initial velocity
velocity all create 60.0 12345

# Thermo settings
thermo 100
thermo_style custom step temp press etotal

# NPT Equilibration
fix 1 all npt temp 60.0 60.0 100.0 iso 0.0 0.0 1000.0
run 5000
Generated 0 of 0 mixed pair_coeff terms from geometric mixing rule
Step          Temp          Press          TotEng
0   60            -1382.8767     -6891.2513
Averages over the last 26 of 51 rows, steps 2500 to 5000:
Temp Press TotEng
59.9938 -0.0977577 -6233.5
Loop time of 15.4594 on 1 procs for 5000 steps with 4000 atoms

# Switch to NVT for constant temperature
unfix 1
fix 2 all nvt temp 60.0 60.0 100.0
run 5000
Generated 0 of 0 mixed pair_coeff terms from geometric mixing rule
Step          Temp          Press          TotEng
5000   59.730916      16.871741     -6235.1735
Averages over the last 26 of 51 rows, steps 7500 to 10000:
Temp Press TotEng
59.8982 8.62903 -6237.39
Loop time of 15.0401 on 1 procs for 5000 steps with 4000 atoms

# Calculate stress and elastic constants
compute stress all stress/atom NULL
compute sigma all reduce sum c_stress[1] c_stress[2] c_stress[3] c_stress[4] c_stress[5] c_stress[6]

# Variables for elastic constants in pressure units
variable V equal vol
variable C11 equal (c_sigma[1]/v_V)*160.21766208  # Convert stress to GPa
variable C12 equal (c_sigma[2]/v_V)*160.21766208
variable C44 equal (c_sigma[4]/v_V)*160.21766208

# Output elastic constants
variable C11_avg equal ave(c11)
variable C12_avg equal ave(c12)
variable C44_avg equal ave(c44)

fix 3 all ave/time 10 1 1000 v_C11 v_C12 v_C44 file elastic_constants.txt

# Run more dynamics to average out fluctuations
run 10000
Generated 0 of 0 mixed pair_coeff terms from geometric mixing rule
Step          Temp          Press          TotEng
10000   60.110381      2.4974032     -6237.753
Averages over the last 51 of 101 rows, steps 15000 to 20000:
Temp Press TotEng
60.0752 15.6338 -6232.86
Loop time of 30.5672 on 1 procs for 10000 steps with 4000 atoms

# Print final averaged values
print "Averaged Elastic Constants:"
Averaged Elastic Constants:
ERROR: Invalid special function in variable formula (../variable.cpp:4496)
