LAMMPS (27 Jun 2024 - Development - patch_27Jun2024-612-gaa0b6c47c2-modified)
# LAMMPS input script for a simple cubic lattice with Lennard-Jones potential

# Initialize simulation
units           metal
dimension       3
boundary        p f p
atom_style      atomic

# Create geometry
lattice         sc 10.0
Lattice spacing in x,y,z = 10 10 10
region          box block 0 10 0 10 0 10
create_box      1 box
Created orthogonal box = (0 0 0) to (100 100 100)
create_atoms    1 box
Created 1000 atoms

# Define mass and LJ potential
mass            1 39.95
pair_style      lj/cut 8.5
pair_coeff      1 1 0.01 3.4 8.5

# Define initial velocities
velocity        all create 300.0 12345

# Define reflective boundaries in y-direction
fix             reflect_y all wall/reflect ylo EDGE yhi EDGE

# Set up simulation parameters
timestep        0.001
thermo          1000

# Run simulation
fix             1 all nve
run             10000
Generated 0 of 0 mixed pair_coeff terms from geometric mixing rule
Step          Temp          E_pair         E_mol          TotEng         Press
0   300            0              0              38.739265      41.378094
Averages over the last 6 of 11 rows, steps 5000 to 10000:
Temp E_pair E_mol TotEng Press
313.634 -1.95721 0 38.5426 44.2133
Loop time of 0.193809 on 1 procs for 10000 steps with 1000 atoms
