LAMMPS (27 Jun 2024 - Development - patch_27Jun2024-612-gaa0b6c47c2-modified)
# LAMMPS input script for shock-induced chemical reactions in liquid methane

units real
atom_style full
boundary p p p

# Create liquid methane structure
lattice fcc 3.0
Lattice spacing in x,y,z = 3 3 3
region box block 0 5 0 5 0 10
create_box 1 box
Created orthogonal box = (0 0 0) to (15 15 30)
create_atoms 1 box
Created 1000 atoms

# Define potential
pair_style lj/cut 10.0
pair_coeff * * 0.294 3.73  # Methane parameters

# Masses
mass 1 16.04  # Methane

# Equilibration at 110K with quantum thermal bath
fix 1 all nve
fix qtb all qtb temp 110 seed 12345

# Timestep
timestep 0.25

# Output settings
thermo 100
thermo_style custom step time temp press etotal vol

# Equilibration run
run 5000
Generated 0 of 0 mixed pair_coeff terms from geometric mixing rule
 (../fix_qtb.cpp:164)
Step          Time           Temp          Press          TotEng         Volume
0   0              0              2.4808919e+08  5980484.7      6750
Averages over the last 26 of 51 rows, steps 2500 to 5000:
Temp Press TotEng Volume
9373.57 2.49068e+08 6.02775e+06 6750
Loop time of 18.7492 on 1 procs for 5000 steps with 1000 atoms

unfix 1
unfix qtb

# Shock compression setup
variable shock_velocity equal 0.122
fix shock all qbmsst z 0.122 T_init 110 seed 12345 q 25 mu 0.9 tscale 0.01 damp 200 f_max 0.3 N_f 100 eta 1 beta 400
QBMSST parameters:
  Shock in z direction
  Cell mass-like parameter qmass (units of mass^2/length^4) =  2.50000e+01
  Shock velocity =  1.22000e-01
  Artificial viscosity (units of mass/length/time) =  9.00000e-01
  Initial pressure calculated on first step
  Initial volume calculated on first step
  Initial energy calculated on first step

# Output settings for shock
thermo_style custom step time temp press etotal vol v_shock_velocity

# Shock simulation
run 10000
Generated 0 of 0 mixed pair_coeff terms from geometric mixing rule
Fix QBMSST v0 =  6.75000e+03
Fix QBMSST p0 =  2.49090e+08
Fix QBMSST e0 = to be  6.02831e+06
Fix QBMSST initial strain rate of -1.82325e-03 established by reducing temperature by factor of  1.00000e-02
Step          Time           Temp          Press          TotEng         Volume     v_shock_velocity
5000   1250           9378.826       2.4907855e+08  6028027.5      6750           0.122
Averages over the last 51 of 101 rows, steps 10000 to 15000:
Temp Press TotEng Volume v_shock_velocity
7870.68 2.49218e+08 6.02791e+06 6750.22 0.122
Loop time of 57.1004 on 1 procs for 10000 steps with 1000 atoms
