LAMMPS (27 Jun 2024 - Development - patch_27Jun2024-612-gaa0b6c47c2-modified)
# LAMMPS input script for simulating a spherical droplet of Lennard-Jones particles

units lj
atom_style atomic

# Define simulation box
region box block -10 10 -10 10 -10 10
create_box 1 box
Created orthogonal box = (-10 -10 -10) to (10 10 10)

# Define face-centered cubic lattice and create atoms
lattice fcc 0.8442
Lattice spacing in x,y,z = 1.6795962 1.6795962 1.6795962
region droplet sphere 0 0 0 5
create_atoms 1 region droplet
Created 2123 atoms

# Set masses
mass 1 1.0

# Define Lennard-Jones potential
pair_style lj/cut 2.5
pair_coeff 1 1 1.0 1.0 2.5

# Generate initial velocities
velocity all create 0.65 12345

# Set neighbor list parameters
neighbor 0.3 bin
neigh_modify every 20 delay 0 check no

# Define fixes
fix 1 all nvt temp 0.65 0.65 0.1

# Compute stress
compute stress all stress/atom NULL

# Define output settings
thermo 50
thermo_style custom step temp pe press

# Run the simulation
run 1000
Generated 0 of 0 mixed pair_coeff terms from geometric mixing rule
Step          Temp          PotEng         Press
0   0.65          -5.982005      -1.5388007
Averages over the last 11 of 21 rows, steps 500 to 1000:
Temp PotEng Press
0.654438 -4.82322 -0.0620336
Loop time of 0.575176 on 1 procs for 1000 steps with 2123 atoms

# Output stress data
fix 2 all ave/time 50 1 50 c_stress[1] c_stress[2] c_stress[3] file stress.dat mode vector
ERROR: Fix ave/time compute stress does not calculate an array (../fix_ave_time.cpp:153)
Last command: fix 2 all ave/time 50 1 50 c_stress[1] c_stress[2] c_stress[3] file stress.dat mode vector
