LAMMPS (27 Jun 2024 - Development - patch_27Jun2024-612-gaa0b6c47c2-modified)
# LAMMPS Input Script for 2D Lennard-Jones System

# Initialize simulation
units lj
dimension 2
atom_style atomic

# Create simulation box
lattice sq 0.8442
Lattice spacing in x,y,z = 1.0883719 1.0883719 1.0883719
region box block 0 20 0 20 -0.1 0.1
create_box 1 box
Created orthogonal box = (0 0 -0.10883719) to (21.767438 21.767438 0.10883719)
create_atoms 1 box
Created 400 atoms

# Set mass and initialize velocities
mass 1 1.0
velocity all create 5.0 12345

# Define interaction potential
pair_style lj/cut 2.5
pair_modify shift yes
pair_coeff 1 1 1.0 1.0 2.5

# Define settings for constraints and integration
fix 1 all enforce2d
fix 2 all nve

# Output settings
thermo 100

# Run the simulation
run 1000
Generated 0 of 0 mixed pair_coeff terms from geometric mixing rule
Step          Temp          E_pair         E_mol          TotEng         Press
0   5             -2.461717       0              2.525783       5.0137746
Averages over the last 6 of 11 rows, steps 500 to 1000:
Temp E_pair E_mol TotEng Press
3.26305 -0.729117 0 2.52578 15.9168
Loop time of 0.0404041 on 1 procs for 1000 steps with 400 atoms

# Energy minimization
unfix 2
min_style cg
minimize 1.0e-4 1.0e-6 100 1000
Generated 0 of 0 mixed pair_coeff terms from geometric mixing rule
Step          Temp          E_pair         E_mol          TotEng         Press
1000   3.2076777     -0.67244246     0              2.5272161      16.241162
Loop time of 0.0112433 on 1 procs for 96 steps with 400 atoms

Minimization stats:
  Stopping criterion = energy tolerance
  Energy initial, next-to-last, final =
  Force two-norm initial, final = 1342.631 4.5043897
  Force max component initial, final = 262.20899 1.4486836
  Final line search alpha, max atom move = 0.020797735 0.030129338
  Iterations, force evaluations = 96 188
