LAMMPS (27 Jun 2024 - Development - patch_27Jun2024-612-gaa0b6c47c2-modified)
# LAMMPS Input Script for Argon Molecular Dynamics Simulation

units           metal
dimension       3
boundary        p p p
atom_style      atomic

# Create FCC lattice and define simulation box
lattice         fcc 4.05
Lattice spacing in x,y,z = 4.05 4.05 4.05
region          simbox block 0 60 0 60 0 60 units box
create_box      2 simbox
Created orthogonal box = (0 0 0) to (60 60 60)
create_atoms    1 box
Created 13500 atoms

# Define masses for argon atoms
mass            1 39.948
mass            2 39.948

# Lennard-Jones potential parameters
pair_style      lj/cut 12.0
pair_coeff      * * 0.238 3.405

# Neighbor list settings
neighbor        2.0 bin
neigh_modify    every 1 delay 0 check yes

# Minimization
min_style       cg
minimize        1.0e-4 1.0e-6 100 1000
Generated 0 of 1 mixed pair_coeff terms from geometric mixing rule
Step          Temp          E_pair         E_mol          TotEng         Press
0   0              807472.78      0              807472.78      28364708
Loop time of 1.68932 on 1 procs for 22 steps with 13500 atoms

Minimization stats:
  Stopping criterion = energy tolerance
  Energy initial, next-to-last, final =
  Force two-norm initial, final = 183575.06 90.849704
  Force max component initial, final = 17994.42 2.1612029
  Final line search alpha, max atom move = 0.016342698 0.035319888
  Iterations, force evaluations = 22 32

# Velocity initialization and temperature scaling
velocity        all create 89.0 12345 mom yes dist gaussian

# Apply Nos√©-Hoover thermostat
fix             1 all nvt temp 89.0 89.0 500.0

# Output settings
thermo          10
thermo_style    custom step temp pe etotal press

dump            1 all xyz 100 argon_simulation.xyz

# Run simulation
timestep        0.001
run             6000
Generated 0 of 1 mixed pair_coeff terms from geometric mixing rule
Step          Temp          PotEng         TotEng         Press
22   89             441179.02      441334.32      17261696
Averages over the last 301 of 602 rows, steps 3030 to 6022:
Temp PotEng TotEng Press
50.4985 441247 441335 1.72635e+07
Loop time of 209.289 on 1 procs for 6000 steps with 13500 atoms

# End of script
