LAMMPS (27 Jun 2024 - Development - patch_27Jun2024-612-gaa0b6c47c2-modified)
# LAMMPS script for calculating elastic constants of fcc Argon

units           metal
dimension       3
boundary        p p p
atom_style      atomic

# Create the fcc lattice of Argon with lattice parameter 5.405 Å
lattice         fcc 5.405
Lattice spacing in x,y,z = 5.405 5.405 5.405
region          box block 0 5 0 5 0 5
create_box      1 box
Created orthogonal box = (0 0 0) to (27.025 27.025 27.025)
create_atoms    1 box
Created 500 atoms

# Define interatomic potential: Lennard-Jones
pair_style      lj/cut 12.0
pair_coeff      1 1 0.0103 3.40  # Argon parameters: epsilon = 0.0103 eV, sigma = 3.40 Å

# Define mass of Argon
mass            1 39.948

# Set the initial temperature
velocity        all create 60.0 12345 mom yes rot yes dist gaussian

# Setup NPT ensemble for equilibration
fix             1 all npt temp 60.0 60.0 1.0 iso 0.0 0.0 10.0

# Run equilibration
timestep        0.001
thermo          100
thermo_style    custom step temp press vol
run             10000
Generated 0 of 0 mixed pair_coeff terms from geometric mixing rule
Step          Temp          Press          Volume
0   60            -1638.7264      19737.726
Averages over the last 51 of 101 rows, steps 5000 to 10000:
Temp Press Volume
61.5323 12.4912 19747.9
Loop time of 6.25871 on 1 procs for 10000 steps with 500 atoms

# Change box dimensions to maintain correct density
unfix           1
fix             2 all nvt temp 60.0 60.0 1.0

# Compute necessary properties for elastic constants
compute         1 all stress/atom NULL
compute         2 all reduce sum c_1[1] c_1[2] c_1[3] c_1[4] c_1[5] c_1[6]

# Setup output for elastic constants calculation
variable        V equal vol
variable        C11 equal (c_2[1]+c_2[2]+c_2[3])/3/19722.4730883989*160.21766208
variable        C12 equal (c_2[4]+c_2[5]+c_2[6])/3/19722.4730883989*160.21766208
variable        C44 equal (c_2[1]-c_2[2])/2/19722.4730883989*160.21766208

# Run the simulation and calculate elastic constants
run             20000
Generated 0 of 0 mixed pair_coeff terms from geometric mixing rule
Step          Temp          Press          Volume
10000   58.259575     -56.097007      19722.473
Averages over the last 101 of 201 rows, steps 20000 to 30000:
Temp Press Volume
59.8642 -19.2838 19722.5
Loop time of 12.2087 on 1 procs for 20000 steps with 500 atoms

# Output the calculated elastic constants
ERROR: Per-atom virial was not tallied on needed timestep (../compute_stress_atom.cpp:145)
