LAMMPS (27 Jun 2024 - Development - patch_27Jun2024-612-gaa0b6c47c2-modified)
# LAMMPS Input Script for Simulating a Liquid-Vapor Interface

# Initialize simulation in LJ units
units lj
atom_style atomic

# Set up simulation box
boundary p p p
lattice fcc 0.8442
Lattice spacing in x,y,z = 1.6795962 1.6795962 1.6795962
region box block 0 10 0 10 0 20
create_box 1 box
Created orthogonal box = (0 0 0) to (16.795962 16.795962 33.591924)

# Define liquid region and create atoms
region liquid block 0 10 0 10 0 10
create_atoms 1 region liquid
Created 4200 atoms

# Assign mass and initial velocities
mass 1 1.0
velocity all create 0.65 87287 loop geom

# Define Lennard-Jones potential
pair_style lj/cut 2.5
pair_coeff 1 1 1.0 1.0 2.5

# Set up NVT ensemble
fix 1 all nvt temp 0.7 0.7 0.1

# Compute stress along the z-direction
compute stress all stress/atom NULL
compute stress_z all reduce sum c_stress[3]

# Output settings
thermo 50
thermo_style custom step temp pe etotal press c_stress_z
thermo_modify line one

# Run the simulation
timestep 0.005
run 1000
Generated 0 of 0 mixed pair_coeff terms from geometric mixing rule
Step          Temp          PotEng         TotEng         Press        c_stress_z
0   0.65          -6.5342767     -5.5595088     -2.8605308      6.2822505
Averages over the last 11 of 21 rows, steps 500 to 1000:
Temp PotEng TotEng Press c_stress_z
0.699002 -5.95413 -4.90587 0.0231118 -0.275163
Loop time of 1.73691 on 1 procs for 1000 steps with 4200 atoms

# Output stress results to a file
fix 2 all ave/time 1 10 50 c_stress_z file stress_z_profile.dat mode vector
ERROR: Fix ave/time compute stress_z does not calculate a vector (../fix_ave_time.cpp:151)
Last command: fix 2 all ave/time 1 10 50 c_stress_z file stress_z_profile.dat mode vector
