LAMMPS (27 Jun 2024 - Development - patch_27Jun2024-612-gaa0b6c47c2-modified)
# LAMMPS input script for simulating a Lennard-Jones fluid in an fcc lattice

# Initialize simulation
units lj
dimension 3
boundary p p p
atom_style atomic

# Create FCC lattice
lattice fcc 0.8442
Lattice spacing in x,y,z = 1.6795962 1.6795962 1.6795962
region simbox block 0 4 0 4 0 4
create_box 1 simbox
Created orthogonal box = (0 0 0) to (6.7183848 6.7183848 6.7183848)
create_atoms 1 box
Created 256 atoms

# Set masses
mass 1 1.0

# Define Lennard-Jones potential with smoothing
pair_style lj/smooth/linear 3.0
pair_coeff 1 1 1.0 1.0 3.0

# Initialize velocities
velocity all create 0.1 87287 loop geom

# Define harmonic mapping average (HMA) parameters
variable T_hma equal 9.579586686264458

# Set up output for potential energy, pressure, and HMA
thermo_style custom step time temp pe press v_T_hma
thermo 1000

# Define fix for NVT ensemble with Nos√©-Hoover thermostat
fix 1 all nvt temp 1.0 1.0 0.5

# Run the simulation
timestep 0.005
run 220000
Generated 0 of 0 mixed pair_coeff terms from geometric mixing rule
Step          Time           Temp          PotEng         Press         v_T_hma
0   0              0.1           -6.3241468     -6.1340095      9.5795867
Averages over the last 111 of 221 rows, steps 110000 to 220000:
Temp PotEng Press v_T_hma
1.00085 -4.8838 2.61075 9.57959
Loop time of 35.867 on 1 procs for 220000 steps with 256 atoms
